
     RDKit          3D

 76 79  0  0  0  0  0  0  0  0999 V2000
    5.4193    0.9953    2.8721 C   0  0  0  0  0  0  0  0  0  0  0  0
    6.1745    1.1775    1.5546 C   0  0  0  0  0  0  0  0  0  0  0  0
    6.4891    2.6540    1.3193 C   0  0  0  0  0  0  0  0  0  0  0  0
    5.4408    0.5356    0.3605 C   0  0  0  0  0  0  0  0  0  0  0  0
    4.0574    1.1175    0.0545 C   0  0  0  0  0  0  0  0  0  0  0  0
    3.3857    0.5260   -1.1982 C   0  0  0  0  0  0  0  0  0  0  0  0
    3.1233   -0.9959   -1.1231 C   0  0  0  0  0  0  0  0  0  0  0  0
    4.1997   -1.7308   -1.9498 C   0  0  0  0  0  0  0  0  0  0  0  0
    1.7227   -1.4695   -1.6095 C   0  0  0  0  0  0  0  0  0  0  0  0
    1.2775   -0.9413   -2.9761 C   0  0  0  0  0  0  0  0  0  0  0  0
   -0.2438   -0.8788   -2.9248 C   0  0  0  0  0  0  0  0  0  0  0  0
   -0.6856   -1.5914   -1.6267 C   0  0  0  0  0  0  0  0  0  0  0  0
   -2.1229   -1.2368   -1.1206 C   0  0  0  0  0  0  0  0  0  0  0  0
   -2.9147   -0.3095   -2.0663 C   0  0  0  0  0  0  0  0  0  0  0  0
   -4.3311   -0.0121   -1.5873 C   0  0  0  0  0  0  0  0  0  0  0  0
   -4.3039    0.5976   -0.1858 C   0  0  0  0  0  0  0  0  0  0  0  0
   -5.7091    1.0310    0.2577 C   0  0  0  0  0  0  0  0  0  0  0  0
   -5.6845    1.6913    1.6361 C   0  0  0  0  0  0  0  0  0  0  0  0
   -7.0173    1.9394    2.0725 O   0  0  0  0  0  0  0  0  0  0  0  0
   -4.9777    0.8353    2.6850 C   0  0  0  0  0  0  0  0  0  0  0  0
   -3.5928    0.3816    2.2164 C   0  0  0  0  0  0  0  0  0  0  0  0
   -3.6158   -0.3456    0.8408 C   0  0  1  0  0  0  0  0  0  0  0  0
   -4.4098   -1.6752    1.0217 C   0  0  0  0  0  0  0  0  0  0  0  0
   -2.1604   -0.7296    0.3483 C   0  0  0  0  0  0  0  0  0  0  0  0
   -1.0847    0.3485    0.5884 C   0  0  0  0  0  0  0  0  0  0  0  0
    0.2948    0.0840   -0.0421 C   0  0  0  0  0  0  0  0  0  0  0  0
    0.4893   -1.3138   -0.6496 C   0  0  2  0  0  0  0  0  0  0  0  0
    0.6406   -2.3792    0.4595 C   0  0  0  0  0  0  0  0  0  0  0  0
    4.4772    1.5545    2.8872 H   0  0  0  0  0  0  0  0  0  0  0  0
    5.1937   -0.0631    3.0496 H   0  0  0  0  0  0  0  0  0  0  0  0
    6.0249    1.3501    3.7140 H   0  0  0  0  0  0  0  0  0  0  0  0
    7.1342    0.6530    1.6520 H   0  0  0  0  0  0  0  0  0  0  0  0
    6.9801    2.8038    0.3516 H   0  0  0  0  0  0  0  0  0  0  0  0
    7.1683    3.0265    2.0950 H   0  0  0  0  0  0  0  0  0  0  0  0
    5.5865    3.2717    1.3444 H   0  0  0  0  0  0  0  0  0  0  0  0
    6.0746    0.6331   -0.5306 H   0  0  0  0  0  0  0  0  0  0  0  0
    5.3527   -0.5399    0.5568 H   0  0  0  0  0  0  0  0  0  0  0  0
    3.3904    0.9821    0.9112 H   0  0  0  0  0  0  0  0  0  0  0  0
    4.1465    2.1972   -0.1050 H   0  0  0  0  0  0  0  0  0  0  0  0
    2.4580    1.0779   -1.3527 H   0  0  0  0  0  0  0  0  0  0  0  0
    4.0082    0.7609   -2.0687 H   0  0  0  0  0  0  0  0  0  0  0  0
    3.2416   -1.3312   -0.0864 H   0  0  0  0  0  0  0  0  0  0  0  0
    5.2090   -1.4797   -1.6120 H   0  0  0  0  0  0  0  0  0  0  0  0
    4.1275   -1.4749   -3.0137 H   0  0  0  0  0  0  0  0  0  0  0  0
    4.0848   -2.8186   -1.8624 H   0  0  0  0  0  0  0  0  0  0  0  0
    1.8229   -2.5577   -1.7588 H   0  0  0  0  0  0  0  0  0  0  0  0
    1.6844    0.0451   -3.2150 H   0  0  0  0  0  0  0  0  0  0  0  0
    1.6076   -1.6190   -3.7727 H   0  0  0  0  0  0  0  0  0  0  0  0
   -0.5222    0.1789   -2.9308 H   0  0  0  0  0  0  0  0  0  0  0  0
   -0.6902   -1.3422   -3.8104 H   0  0  0  0  0  0  0  0  0  0  0  0
   -0.6879   -2.6700   -1.8513 H   0  0  0  0  0  0  0  0  0  0  0  0
   -2.6633   -2.1948   -1.1315 H   0  0  0  0  0  0  0  0  0  0  0  0
   -2.3978    0.6514   -2.1684 H   0  0  0  0  0  0  0  0  0  0  0  0
   -2.9748   -0.7577   -3.0649 H   0  0  0  0  0  0  0  0  0  0  0  0
   -4.7956    0.6925   -2.2877 H   0  0  0  0  0  0  0  0  0  0  0  0
   -4.9413   -0.9210   -1.6159 H   0  0  0  0  0  0  0  0  0  0  0  0
   -3.7051    1.5191   -0.2503 H   0  0  0  0  0  0  0  0  0  0  0  0
   -6.4071    0.1864    0.2536 H   0  0  0  0  0  0  0  0  0  0  0  0
   -6.1268    1.7417   -0.4675 H   0  0  0  0  0  0  0  0  0  0  0  0
   -5.1760    2.6601    1.5673 H   0  0  0  0  0  0  0  0  0  0  0  0
   -7.4556    2.4773    1.3904 H   0  0  0  0  0  0  0  0  0  0  0  0
   -4.8808    1.4160    3.6119 H   0  0  0  0  0  0  0  0  0  0  0  0
   -5.5989   -0.0273    2.9558 H   0  0  0  0  0  0  0  0  0  0  0  0
   -3.1423   -0.2658    2.9814 H   0  0  0  0  0  0  0  0  0  0  0  0
   -2.9658    1.2799    2.1558 H   0  0  0  0  0  0  0  0  0  0  0  0
   -4.4301   -2.2808    0.1119 H   0  0  0  0  0  0  0  0  0  0  0  0
   -3.9482   -2.2911    1.8053 H   0  0  0  0  0  0  0  0  0  0  0  0
   -5.4511   -1.5151    1.3145 H   0  0  0  0  0  0  0  0  0  0  0  0
   -1.8870   -1.5765    0.9831 H   0  0  0  0  0  0  0  0  0  0  0  0
   -1.4415    1.3205    0.2231 H   0  0  0  0  0  0  0  0  0  0  0  0
   -0.9327    0.4706    1.6692 H   0  0  0  0  0  0  0  0  0  0  0  0
    0.4317    0.8474   -0.8178 H   0  0  0  0  0  0  0  0  0  0  0  0
    1.0689    0.2825    0.7097 H   0  0  0  0  0  0  0  0  0  0  0  0
    0.6945   -3.3878    0.0306 H   0  0  0  0  0  0  0  0  0  0  0  0
    1.5602   -2.2188    1.0320 H   0  0  0  0  0  0  0  0  0  0  0  0
   -0.1671   -2.3924    1.1896 H   0  0  0  0  0  0  0  0  0  0  0  0
  1  2  1  0
  2  3  1  0
  2  4  1  0
  4  5  1  0
  5  6  1  0
  6  7  1  0
  7  8  1  0
  7  9  1  0
  9 10  1  0
 10 11  1  0
 11 12  1  0
 12 13  1  0
 13 14  1  0
 14 15  1  0
 15 16  1  0
 16 17  1  0
 17 18  1  0
 18 19  1  0
 18 20  1  0
 20 21  1  0
 21 22  1  0
 22 23  1  1
 22 24  1  0
 24 25  1  0
 25 26  1  0
 26 27  1  0
 27 28  1  1
 27  9  1  0
 27 12  1  0
 24 13  1  0
 22 16  1  0
  1 29  1  0
  1 30  1  0
  1 31  1  0
  2 32  1  0
  3 33  1  0
  3 34  1  0
  3 35  1  0
  4 36  1  0
  4 37  1  0
  5 38  1  0
  5 39  1  0
  6 40  1  0
  6 41  1  0
  7 42  1  0
  8 43  1  0
  8 44  1  0
  8 45  1  0
  9 46  1  0
 10 47  1  0
 10 48  1  0
 11 49  1  0
 11 50  1  0
 12 51  1  0
 13 52  1  0
 14 53  1  0
 14 54  1  0
 15 55  1  0
 15 56  1  0
 16 57  1  0
 17 58  1  0
 17 59  1  0
 18 60  1  0
 19 61  1  0
 20 62  1  0
 20 63  1  0
 21 64  1  0
 21 65  1  0
 23 66  1  0
 23 67  1  0
 23 68  1  0
 24 69  1  0
 25 70  1  0
 25 71  1  0
 26 72  1  0
 26 73  1  0
 28 74  1  0
 28 75  1  0
 28 76  1  0
M  END
$$$$
